LAMMPS (29 Aug 2024 - Update 1)
units metal
atom_style atomic
boundary p p p

region box block 0 100 0 100 0 100
create_box 1 box
Created orthogonal box = (0 0 0) to (100 100 100)

create_atoms 1 random 100 12345 box
Created 100 atoms
mass 1 39.948

pair_style lj/cut 2.5
pair_coeff * * 0.0103 3.4

group Argas region box
100 atoms in group Argas

timestep 0.01
velocity Argas create 2000 12345 mom yes rot yes

thermo 25
thermo_style custom step temp press etotal vol

variable step equal step
variable temp equal temp
variable press equal press
variable etotal equal etotal
variable vol equal vol

fix 1 all nvt temp 2000 100 0.5
dump heat all atom 50 Ar-gas.dump
run 10000
Generated 0 of 0 mixed pair_coeff terms from geometric mixing rule
Step          Temp          Press          TotEng         Volume
0   2000           27.336879      25.593509      1000000
Averages over the last 201 of 401 rows, steps 5000 to 10000:
Temp Press TotEng Volume
593.877 8.30174 7.62629 1e+06
Loop time of 0.220227 on 1 procs for 10000 steps with 100 atoms
