LAMMPS (23 Jun 2022)
#
# Shear stress applied measure the shear strain and determine the shear modulus (C44=C55=C66)
#
units metal
dimension 3
boundary p p p

#
# read restart file from previous run
#

read_restart	restart_at300K.npt2 remap
Reading restart file ...
  restart file = 23 Jun 2022, LAMMPS = 23 Jun 2022
  restoring atom style atomic from restart
  triclinic box = (0.10231192 0.10231192 0.10231192) to (43.493688 43.493688 43.493688) with tilt (0 0 0)
  pair style tersoff stores no restart info
  8000 atoms
  read_restart CPU = 0.154 seconds

# CHANGE BOX to triclinic

change_box      all triclinic
Changing box ...
  triclinic box = (0.10231192 0.10231192 0.10231192) to (43.493688 43.493688 43.493688) with tilt (0 0 0)

#
# Potentials
#

pair_style	tersoff
pair_coeff      * * ./SiC.tersoff C Si
Reading tersoff potential file ./SiC.tersoff with DATE: 2011-04-26

mass 1   12.0107
mass 2   28.0855

#
# T0 is temperature at which we got the restart file from
# P0 is pressure which we got from the restart file
#
variable T0		equal 300
variable T1		equal 300
variable T2		equal 300
variable P0		equal 1
variable P1		equal 1
variable P2		equal 1000

variable step_ramp	equal 500
variable step_relax	equal 2000
variable step_equi      equal 5000
variable step_cont	equal 2000
variable step_begp	equal 1000
variable thermo_step	equal 100

variable vstep  equal           "step"
variable vpe    equal           "pe"
variable vtemp  equal           "temp"
variable venth  equal        "enthalpy"
variable vvol   equal           "vol"
variable vlx	equal		"lx"
variable vly	equal		"ly"
variable vlz	equal		"lz"
variable vxy	equal		"xy"
variable vxz	equal		"xz"
variable vyz	equal		"yz"
variable vpress equal           "press"
variable vte	equal		"etotal"
variable vke    equal		"ke"

variable vpxx	equal		"pxx"
variable vpyy   equal           "pyy"
variable vpzz   equal           "pzz"
variable vpxy   equal           "pxy"
variable vpxz   equal           "pxz"
variable vpyz   equal           "pyz"

# Initialization with RESTART file
# Switched the system into triclinic - observe the change in fix all npt - lines

timestep 	0.001 # fs

thermo          100
thermo_style    custom step temp ke pe etotal enthalpy vol lx ly lz press pxx pyy pzz pxy pxz pyz atoms
fix cont        all npt temp 300 300 0.1 x 0 0 0.1 y 0 0 0.1 z 0 0 0.1 xy 1 1 1.0
run             2000
Unused restart file global fix info:
  fix style: npt, fix ID: npt2
  update every 1 steps, delay 10 steps, check yes
Step          Temp          KinEng         PotEng         TotEng        Enthalpy        Volume           Lx             Ly             Lz           Press           Pxx            Pyy            Pzz            Pxy            Pxz            Pyz          Atoms
12000   285.2377       294.92206     -49034.13      -48739.208     -48643.775      81697.783      43.391376      43.391376      43.391376      1871.5383      870.17021      1856.3251      2888.1197     -110.86215     -1063.617       143.42462           8000
Loop time of 7.76118 on 8 procs for 2000 steps with 8000 atoms

System init for write_restart ...
Setting up Verlet run ...
  Unit style    : metal
  Current step  : 0
  Time step     : 0.001
Step          Temp          KinEng         PotEng         TotEng        Enthalpy        Volume           Lx             Ly             Lz           Press           Pxx            Pyy            Pzz            Pxy            Pxz            Pyz          Atoms
0   297.88919      308.00309     -49020.314     -48712.311     -48685.205      81781.791      43.405212      43.399038      43.414484      531.04659      1077.7703      555.19709     -39.827654      88.436234     -170.45156      1346.8934           8000
write_restart   restart_300Kxy1bar.cnt
System init for write_restart ...

unfix           cont
unfix           cnt_out

#
# Set a run for 0 pressure state for the
reset_timestep  0

fix equa       all npt temp 300 300 0.1 x 0 0 1. y 0 0 1. z 0 0 1. xy 0 0 1. xz 0 0 1. yz 0 0 1.0
run             5000
Step          Temp          KinEng         PotEng         TotEng        Enthalpy        Volume           Lx             Ly             Lz           Press           Pxx            Pyy            Pzz            Pxy            Pxz            Pyz          Atoms
0   297.88919      308.00309     -49020.314     -48712.311     -48685.205      81781.791      43.405212      43.399038      43.414484      531.04659      1077.7703      555.19709     -39.827654      88.436234     -170.45156      1346.8934           8000
      3900   298.87198      309.01925     -49019.102     -48710.082     -48633.544      81782.637      43.391732      43.401575      43.42588       1499.4273      2956.3621      2000.502.7493      1468.1114           8000
      4000   296.58579      306.65544     -49016.723     -48710.067     -48530.66       81760.338      43.411029      43.414622      43.3817        3515.6708System init for write_restart ...
1
1000
Setting up Verlet run ...
  Unit style    : metal
  Current step  : 0
  Time step     : 0.001
Step          Temp          KinEng         PotEng         TotEng        Enthalpy        Volume           Lx           Press           Pxx            Pyy            Pzz            Pyz
0   298.89431      309.04234     -49017.395     -48708.353     -48761.194      81859.625      43.422398     -1034.2266     -1117.7442     -248.85885     -1736.0768      312.94069
Loop time of 1.93019 on 8 procs for 500 steps with 8000 atoms

System init for write_restart ...
Setting up Verlet run ...
  Unit style    : metal
  Current step  : 500
  Time step     : 0.001
Step          Temp          KinEng         PotEng         TotEng        Enthalpy        Volume           Lx           Press           Pxx            Pyy            Pzz            Pyz
500   298.16855      308.29194     -49016.738     -48708.446     -48793.524      81840.423      43.421749     -1665.5553     -2774.767      -784.99092     -1436.9081     -1999.2611
Averages over the last 11 of 21 rows, steps 1500 to 2500:
Temp KinEng PotEng TotEng Enthalpy Volume Lx Press Pxx Pyy Pzz Pyz
299.557 309.727 -49019.2 -48709.5 -48704.3 81808.7 43.4105 103.456 316.552 100.963 -107.148 -451.895
Loop time of 7.85868 on 8 procs for 2000 steps with 8000 atoms

write_restart   restaSystem init for write_restart ...
Setting up Verlet run ...
  Unit style    : metal
  Current step  : 0
  Time step     : 0.001
Step          Temp          KinEng         PotEng         TotEng        Enthalpy        Volume           Lx           Press           Pxx            Pyy            Pzz            Pyz
0   300.61665      310.82316     -49022.262     -48711.439     -48664.11       81764.041      43.406663      927.42055      590.75718      1959.2934      232.21104     -89.525346
Averages over the last 26 of 51 rows, steps 2500 to 5000:
Temp KinEng PotEng TotEng Enthalpy Volume Lx Press Pxx Pyy Pzz Pyz
300.931 311.148 -49019.3 -48708.1 -48714.8 81811.6 43.412 -130.674 -301.128 51.6214 -142.514 -576.603
Loop time of 20.2997 on 8 procs for 5000 steps with 8000 atoms

System init for write_restart ...
1001
2000
Setting up Verlet run ...
  Unit style    : metal
  Current step  : 0
  Time step     : 0.001
Step          Temp          KinEng         PotEng         TotEng        Enthalpy        Volume           Lx           Press           Pxx            Pyy            Pzz            Pyz
0   302.50124      312.77174     -49024.717     -48711.945     -48694.388      81797.502      43.415464      343.89596     -208.8635       1313.6027     -73.051312     -2264.8372
Loop time of 1.93527 on 8 procs for 500 steps with 8000 atoms

System init for write_restart ...
Setting up Verlet run ...
  Unit style    : metal
  Current step  : 500
  Time step     : 0.001
Step          Temp          KinEng         PotEng         TotEng        Enthalpy        Volume           Lx           Press           Pxx            Pyy            Pzz            Pyz
500   299.34034      309.50351     -49020.409     -48710.905     -48621.758      81757.734      43.40051       1746.9822      2476.5413     -241.47071      3005.8759      95.403761
Averages over the last 11 of 21 rows, steps 1500 to 2500:
Temp KinEng PotEng TotEng Enthalpy Volume Lx Press Pxx Pyy Pzz Pyz
300.818 311.031 -49019.8 -48708.7 -48706.6 81813 43.4103 41.7422 -161.855 388.434 -101.353 -631.415
Loop time of 7.76978 on 8 procs for 2000 steps with 8000 atoms

System init for write_restart ...
Setting up Verlet run ...
  Unit style    : metal
  Current step  : 0
  Time step     : 0.001
Step          Temp          KinEng         PotEng         TotEng        Enthalpy        Volume           Lx           Press           Pxx            Pyy            Pzz            Pyz
0   301.75859      312.00387     -49017.632     -48705.628     -48663.92       81820.238      43.408069      816.71628      1562.2959      28.984409      858.8685      -1014.222
Averages over the last 26 of 51 rows, steps 2500 to 5000:
Temp KinEng PotEng TotEng Enthalpy Volume Lx Press Pxx Pyy Pzz Pyz
299.617 309.789 -49018.8 -48709.1 -48713.1 81814.7 43.412 -79.5733 128.857 -294.411 -73.1655 -350.564
Loop time of 20.4114 on 8 procs for 5000 steps with 8000 atoms

System init for write_restart ...
2001
3000
Setting up Verlet run ...
  Unit style    : metal
  Current step  : 0
  Time step     : 0.001
Step          Temp          KinEng         PotEng         TotEng        Enthalpy        Volume           Lx           Press           Pxx            Pyy            Pzz            Pyz
0   298.99917      309.15076     -49016.903     -48707.752     -48783.302      81839.826      43.428767     -1479.0448     -2610.0809     -1209.717      -617.33652      269.90631
Loop time of 1.93457 on 8 procs for 500 steps with 8000 atoms

System init for write_restart ...
Setting up Verlet run ...
  Unit style    : metal
  Current step  : 500
  Time step     : 0.001
Step          Temp          KinEng         PotEng         TotEng        Enthalpy        Volume           Lx           Press           Pxx            Pyy            Pzz            Pyz
500   300.90463      311.12091     -49019.326     -48708.205     -48739.022      81822.713      43.400279     -603.43516      1099.2275     -1542.8436     -1366.6894     -553.10588
Averages over the last 11 of 21 rows, steps 1500 to 2500:
Temp KinEng PotEng TotEng Enthalpy Volume Lx Press Pxx Pyy Pzz Pyz
299.253 309.413 -49019.3 -48709.9 -48704.1 81812.8 43.4109 113.788 94.0047 56.0271 191.332 -238.263
Loop time of 7.72885 on 8 procs for 2000 steps with 8000 atoms

System init for write_restart ...
Setting up Verlet run ...
  Unit style    : metal
  Current step  : 0
  Time step     : 0.001
Step          Temp          KinEng         PotEng         TotEng        Enthalpy        Volume           Lx           Press           Pxx            Pyy            Pzz            Pyz
0   299.733        309.90951     -49023.067     -48713.158     -48747.069      81807.126      43.413383     -664.14778     -1158.275       495.3714      -1329.5397     -291.08995
Averages over the last 26 of 51 rows, steps 2500 to 5000:
Temp KinEng PotEng TotEng Enthalpy Volume Lx Press Pxx Pyy Pzz Pyz
299.844 310.024 -49019.3 -48709.2 -48702.6 81809.5 43.4104 130.069 157.229 166.587 66.3896 -302.32
Loop time of 20.4192 on 8 procs for 5000 steps with 8000 atoms

System init for write_restart ...
3001
4000
Setting up Verlet run ...
  Unit style    : metal
  Current step  : 0
  Time step     : 0.001
Step          Temp          KinEng         PotEng         TotEng        Enthalpy        Volume           Lx           Press           Pxx            Pyy            Pzz            Pyz
0   298.183        308.30688     -49019.476     -48711.169     -48864.279      81882.598      43.402471     -2995.8652     -596.94255     -4993.8174     -3396.8358      1346.943
Loop time of 1.94255 on 8 procs for 500 steps with 8000 atoms

System init for write_restart ...
Setting up Verlet run ...
  Unit style    : metal
  Current step  : 500
  Time step     : 0.001
Step          Temp          KinEng         PotEng         TotEng        Enthalpy        Volume           Lx           Press           Pxx            Pyy            Pzz            Pyz
500   299.12988      309.2859      -49019.849     -48710.563     -48762.279      81836.234      43.431224     -1012.4917     -2574.022       1198.3585     -1661.8117     -371.90704
Averages over the last 11 of 21 rows, steps 1500 to 2500:
Temp KinEng PotEng TotEng Enthalpy Volume Lx Press Pxx Pyy Pzz Pyz
300.755 310.966 -49019.1 -48708.1 -48723.4 81816.6 43.4128 -298.91 -251.852 -259.796 -385.082 -1014.79
Loop time of 7.74318 on 8 procs for 2000 steps with 8000 atoms

System init for write_restart ...
Setting up Verlet run ...
  Unit style    : metal
  Current step  : 0
  Time step     : 0.001
Step          Temp          KinEng         PotEng         TotEng        Enthalpy        Volume           Lx           Press           Pxx            Pyy            Pzz            Pyz
0   300.0172       310.20335     -49014.988     -48704.785     -48758.322      81847.403      43.426587     -1047.9966     -1618.955       1597.2562     -3122.291      -1711.7697
Averages over the last 26 of 51 rows, steps 2500 to 5000:
Temp KinEng PotEng TotEng Enthalpy Volume Lx Press Pxx Pyy Pzz Pyz
299.572 309.743 -49020 -48710.3 -48709.6 81808.9 43.4121 14.1298 -16.1569 29.1474 29.3991 -446.022
Loop time of 20.4104 on 8 procs for 5000 steps with 8000 atoms

System init for write_restart ...
4001
5000
Setting up Verlet run ...
  Unit style    : metal
  Current step  : 0
  Time step     : 0.001
Step          Temp          KinEng         PotEng         TotEng        Enthalpy        Volume           Lx           Press           Pxx            Pyy            Pzz            Pyz
0   300.54506      310.74913     -49019.5       -48708.751     -48595.373      81752.426      43.402787      2221.9633      1981.5733      1317.2244      3367.0924     -1950.6956
Loop time of 1.93366 on 8 procs for 500 steps with 8000 atoms

System init for write_restart ...
Setting up Verlet run ...
  Unit style    : metal
  Current step  : 500
  Time step     : 0.001
Step          Temp          KinEng         PotEng         TotEng        Enthalpy        Volume           Lx           Press           Pxx            Pyy            Pzz            Pyz
500   298.68847      308.82952     -49019.229     -48710.4       -48648.247      81770.627      43.40977       1217.7839      441.36331      605.82641      2606.1619      9.6689089
Averages over the last 11 of 21 rows, steps 1500 to 2500:
Temp KinEng PotEng TotEng Enthalpy Volume Lx Press Pxx Pyy Pzz Pyz
301.661 311.903 -49020.2 -48708.3 -48687 81804.7 43.4091 417.823 874.309 259.241 119.92 -585.497
Loop time of 7.7366 on 8 procs for 2000 steps with 8000 atoms

System init for write_restart ...
Setting up Verlet run ...
  Unit style    : metal
  Current step  : 0
  Time step     : 0.001
Step          Temp          KinEng         PotEng         TotEng        Enthalpy        Volume           Lx           Press           Pxx            Pyy            Pzz            Pyz
0   305.58492      315.9601      -49020.967     -48705.007     -48675.528      81805.261      43.387897      577.36554      2483.0063     -618.95983     -131.94985     -151.67288
Averages over the last 26 of 51 rows, steps 2500 to 5000:
Temp KinEng PotEng TotEng Enthalpy Volume Lx Press Pxx Pyy Pzz Pyz
301.205 311.432 -49018.7 -48707.3 -48727.6 81816.8 43.4106 -397.039 -473.095 -488.808 -229.213 -757.859
Loop time of 20.348 on 8 procs for 5000 steps with 8000 atoms

System init for write_restart ...
5001
6000
Setting up Verlet run ...
  Unit style    : metal
  Current step  : 0
  Time step     : 0.001
Step          Temp          KinEng         PotEng         TotEng        Enthalpy        Volume           Lx           Press           Pxx            Pyy            Pzz            Pyz
0   303.17313      313.46643     -49016.191     -48702.725     -48733.996      81820.188      43.384761     -612.34545      1391.4663     -3005.6938     -222.8088      -607.40882
Loop time of 1.93657 on 8 procs for 500 steps with 8000 atoms

System init for write_restart ...
Setting up Verlet run ...
  Unit style    : metal
  Current step  : 500
  Time step     : 0.001
Step          Temp          KinEng         PotEng         TotEng        Enthalpy        Volume           Lx           Press           Pxx            Pyy            Pzz            Pyz
500   304.75265      315.09958     -49022.265     -48707.165     -48659.769      81805.149      43.439992      928.27893     -1072.8071      2971.229       886.41492      1523.0591
Averages over the last 11 of 21 rows, steps 1500 to 2500:
Temp KinEng PotEng TotEng Enthalpy Volume Lx Press Pxx Pyy Pzz Pyz
299.959 310.144 -49019.7 -48709.6 -48723.7 81817.8 43.4131 -275.306 -755.279 -311.611 240.974 -563.974
Loop time of 7.77584 on 8 procs for 2000 steps with 8000 atoms

System init for write_restart ...
Setting up Verlet run ...
  Unit style    : metal
  Current step  : 0
  Time step     : 0.001
Step          Temp          KinEng         PotEng         TotEng        Enthalpy        Volume           Lx           Press           Pxx            Pyy            Pzz            Pyz
0   298.93849      309.08802     -49022.256     -48713.168     -48751.634      81832.797      43.391776     -753.12337      196.40254     -1339.3291     -1116.4435     -1206.594
Averages over the last 26 of 51 rows, steps 2500 to 5000:
Temp KinEng PotEng TotEng Enthalpy Volume Lx Press Pxx Pyy Pzz Pyz
299.16 309.317 -49019.7 -48710.4 -48723 81813.1 43.4112 -246.451 -316.637 -306.775 -115.941 27.9294
Loop time of 20.2969 on 8 procs for 5000 steps with 8000 atoms

System init for write_restart ...
6001
7000
Setting up Verlet run ...
  Unit style    : metal
  Current step  : 0
  Time step     : 0.001
Step          Temp          KinEng         PotEng         TotEng        Enthalpy        Volume           Lx           Press           Pxx            Pyy            Pzz            Pyz
0   299.7597       309.93711     -49020.061     -48710.124     -48734.52       81818.607      43.410828     -477.72897      294.63596     -1657.6418     -70.181065     -748.86146
Loop time of 1.93195 on 8 procs for 500 steps with 8000 atoms

System init for write_restart ...
Setting up Verlet run ...
  Unit style    : metal
  Current step  : 500
  Time step     : 0.001
Step          Temp          KinEng         PotEng         TotEng        Enthalpy        Volume           Lx           Press           Pxx            Pyy            Pzz            Pyz
500   297.9592       308.07548     -49017.818     -48709.742     -48662.138      81808.263      43.391961      932.30309      2900.2212     -1122.8431      1019.5312     -19.987044
Averages over the last 11 of 21 rows, steps 1500 to 2500:
Temp KinEng PotEng TotEng Enthalpy Volume Lx Press Pxx Pyy Pzz Pyz
300.436 310.636 -49018.3 -48707.7 -48701 81809.2 43.4092 130.294 346.269 -15.3925 60.0059 -360.52
Loop time of 7.77049 on 8 procs for 2000 steps with 8000 atoms

System init for write_restart ...
Setting up Verlet run ...
  Unit style    : metal
  Current step  : 0
  Time step     : 0.001
Step          Temp          KinEng         PotEng         TotEng        Enthalpy        Volume           Lx           Press           Pxx            Pyy            Pzz            Pyz
0   300.41238      310.61195     -49016.428     -48705.816     -48685.013      81782.234      43.399625      407.54525      510.32094      76.953167      635.36164     -154.11642
Averages over the last 26 of 51 rows, steps 2500 to 5000:
Temp KinEng PotEng TotEng Enthalpy Volume Lx Press Pxx Pyy Pzz Pyz
299.896 310.078 -49019.9 -48709.8 -48701 81809.6 43.4115 172.414 175.029 59.2908 282.923 -707.015
Loop time of 20.3738 on 8 procs for 5000 steps with 8000 atoms

System init for write_restart ...
7001
8000
Setting up Verlet run ...
  Unit style    : metal
  Current step  : 0
  Time step     : 0.001
Step          Temp          KinEng         PotEng         TotEng        Enthalpy        Volume           Lx           Press           Pxx            Pyy            Pzz            Pyz
0   297.83509      307.94716     -49025.02      -48717.073     -48657.45       81782.953      43.412396      1168.0473      891.33911      345.39167      2267.411       130.40319
Loop time of 1.94771 on 8 procs for 500 steps with 8000 atoms

System init for write_restart ...
Setting up Verlet run ...
  Unit style    : metal
  Current step  : 500
  Time step     : 0.001
Step          Temp          KinEng         PotEng         TotEng        Enthalpy        Volume           Lx           Press           Pxx            Pyy            Pzz            Pyz
500   295.94506      305.99296     -49017.553     -48711.56      -48744.871      81816.805      43.417956     -652.31836     -2125.5864      871.49421     -702.86289     -2581.3227
Averages over the last 11 of 21 rows, steps 1500 to 2500:
Temp KinEng PotEng TotEng Enthalpy Volume Lx Press Pxx Pyy Pzz Pyz
300.098 310.287 -49018.9 -48708.6 -48723.1 81820.3 43.4149 -283.326 -505.958 -103.156 -240.864 -781.937
Loop time of 7.72677 on 8 procs for 2000 steps with 8000 atoms

System init for write_restart ...
Setting up Verlet run ...
  Unit style    : metal
  Current step  : 0
  Time step     : 0.001
Step          Temp          KinEng         PotEng         TotEng        Enthalpy        Volume           Lx           Press           Pxx            Pyy            Pzz            Pyz
0   300.38279      310.58135     -49018.047     -48707.466     -48778.018      81840.379      43.419305     -1381.1933     -2503.49        355.51008     -1995.5999      493.3214
Averages over the last 26 of 51 rows, steps 2500 to 5000:
Temp KinEng PotEng TotEng Enthalpy Volume Lx Press Pxx Pyy Pzz Pyz
301.2 311.427 -49018.5 -48707 -48713.2 81820.2 43.4138 -120.654 -118.162 -63.2155 -180.585 -217.277
Loop time of 20.3194 on 8 procs for 5000 steps with 8000 atoms

System init for write_restart ...
8001
9000
Setting up Verlet run ...
  Unit style    : metal
  Current step  : 0
  Time step     : 0.001
Step          Temp          KinEng         PotEng         TotEng        Enthalpy        Volume           Lx           Press           Pxx            Pyy            Pzz            Pyz
0   299.78893      309.96733     -49022.48      -48712.513     -48697.137      81814.167      43.383114      301.09799      2182.6721     -1286.7893      7.4112048      511.46607
Loop time of 1.94871 on 8 procs for 500 steps with 8000 atoms

System init for write_restart ...
Setting up Verlet run ...
  Unit style    : metal
  Current step  : 500
  Time step     : 0.001
Step          Temp          KinEng         PotEng         TotEng        Enthalpy        Volume           Lx           Press           Pxx            Pyy            Pzz            Pyz
500   297.91941      308.03434     -49015.977     -48707.942     -48754.317      81830.997      43.438364     -907.96811     -2786.8484      210.69645     -147.75237     -2065.8978
Averages over the last 11 of 21 rows, steps 1500 to 2500:
Temp KinEng PotEng TotEng Enthalpy Volume Lx Press Pxx Pyy Pzz Pyz
298.929 309.078 -49019.7 -48710.6 -48723.9 81813.8 43.4118 -259.262 -257.57 -142.714 -377.502 -325.171
Loop time of 7.76482 on 8 procs for 2000 steps with 8000 atoms

System init for write_restart ...
Setting up Verlet run ...
  Unit style    : metal
  Current step  : 0
  Time step     : 0.001
Step          Temp          KinEng         PotEng         TotEng        Enthalpy        Volume           Lx           Press           Pxx            Pyy            Pzz            Pyz
0   300.26928      310.46399     -49016.307     -48705.843     -48803.272      81853.551      43.403069     -1907.0452     -863.39062      204.98049     -5062.7254     -312.93251
Averages over the last 26 of 51 rows, steps 2500 to 5000:
Temp KinEng PotEng TotEng Enthalpy Volume Lx Press Pxx Pyy Pzz Pyz
300.85 311.064 -49017.7 -48706.6 -48692.2 81812.9 43.4119 283.215 167.099 291.045 391.501 -394.473
Loop time of 20.3184 on 8 procs for 5000 steps with 8000 atoms

System init for write_restart ...
9001
10000
Setting up Verlet run ...
  Unit style    : metal
  Current step  : 0
  Time step     : 0.001
Step          Temp          KinEng         PotEng         TotEng        Enthalpy        Volume           Lx           Press           Pxx            Pyy            Pzz            Pyz
0   302.46888      312.73828     -49016.146     -48703.407     -48634.358      81809.965      43.409448      1352.2766      890.28315      269.80813      2896.7385      1250.6582
Loop time of 1.94292 on 8 procs for 500 steps with 8000 atoms

System init for write_restart ...
Setting up Verlet run ...
  Unit style    : metal
  Current step  : 500
  Time step     : 0.001
Step          Temp          KinEng         PotEng         TotEng        Enthalpy        Volume           Lx           Press           Pxx            Pyy            Pzz            Pyz
500   297.52224      307.62369     -49014.978     -48707.354     -48662.201      81814.853      43.409628      884.2208       779.38654      2800.5748     -927.29893     -847.78903
Averages over the last 11 of 21 rows, steps 1500 to 2500:
Temp KinEng PotEng TotEng Enthalpy Volume Lx Press Pxx Pyy Pzz Pyz
300.148 310.339 -49019.2 -48708.8 -48723.1 81823.2 43.4158 -279.127 -474.382 -125.761 -237.239 -627.347
Loop time of 7.76731 on 8 procs for 2000 steps with 8000 atoms

System init for write_restart ...
Setting up Verlet run ...
  Unit style    : metal
  Current step  : 0
  Time step     : 0.001
Step          Temp          KinEng         PotEng         TotEng        Enthalpy        Volume           Lx           Press           Pxx            Pyy            Pzz            Pyz
0   299.0597       309.21335     -49020.816     -48711.603     -48871.52       81890.32       43.438429     -3128.754      -5027.0953     -624.64193     -3734.5248     -1066.8215
Averages over the last 26 of 51 rows, steps 2500 to 5000:
Temp KinEng PotEng TotEng Enthalpy Volume Lx Press Pxx Pyy Pzz Pyz
299.642 309.815 -49018.7 -48708.9 -48711.8 81817 43.413 -57.3893 -47.8577 -79.6226 -44.6876 -217.239
Loop time of 20.4196 on 8 procs for 5000 steps with 8000 atoms

System init for write_restart ...
Job Complete

Loop time of 1.94871 on 8 procs for 500 steps with 8000 atoms

write_restart   restart_300Kxy9000bar.rmp
System init for write_restart ...

unfix           ramp
unfix           rmp_out

#
# settle at P2
#

fix relax       all npt temp 300 300 0.1 x 0 0 1  y 0. 0. 1  z 0. 0. 1 xy 9000 9000 1

run             2000
Step          Temp          KinEng         PotEng         TotEng        Enthalpy        Volume           Lx           Press           Pxx            Pyy            Pzz            Pyz
500   297.91941      308.03434     -49015.977     -48707.942     -48754.317      81830.997      43.438364     -907.96811     -2786.8484      210.69645     -147.75237     -2065.8978
Averages over the last 11 of 21 rows, steps 1500 to 2500:
Temp KinEng PotEng TotEng Enthalpy Volume Lx Press Pxx Pyy Pzz Pyz
298.929 309.078 -49019.7 -48710.6 -48723.9 81813.8 43.4118 -259.262 -257.57 -142.714 -377.502 -325.171
Loop time of 7.76482 on 8 procs for 2000 steps with 8000 atoms

write_restart   restart_300Kxy9000bar.rlx
System init for write_restart ...

unfix           relax
unfix           rlx_out

#
# Run at P2 for equilibrium data
#

reset_timestep  0

fix equi        all npt temp 300 300 0.1 x 0 0 1 y 0. 0. 1  z 0. 0. 1 xy 9000 9000 1

run             5000
Step          Temp          KinEng         PotEng         TotEng        Enthalpy        Volume           Lx           Press           Pxx            Pyy            Pzz            Pyz
0   300.26928      310.46399     -49016.307     -48705.843     -48803.272      81853.551      43.403069     -1907.0452     -863.39062      204.98049     -5062.7254     -312.93251
Averages over the last 26 of 51 rows, steps 2500 to 5000:
Temp KinEng PotEng TotEng Enthalpy Volume Lx Press Pxx Pyy Pzz Pyz
300.85 311.064 -49017.7 -48706.6 -48692.2 81812.9 43.4119 283.215 167.099 291.045 391.501 -394.473
Loop time of 20.3184 on 8 procs for 5000 steps with 8000 atoms

write_restart   restart_300Kxy9000bar.eql
System init for write_restart ...

unfix           equi
unfix           eq_out

next i

jump SELF shear_loop

variable P1 equal	"v_i*1000 - 999"
variable P2 equal 	"v_i*1000"

print 9001
9001
print 10000
10000
#

reset_timestep 0

#
# Run at T0 and P2
#

thermo          100
thermo_style    custom step temp ke pe etotal enthalpy vol lx press pxx pyy pzz pyz
fix ramp        all npt temp 300 300 0.1 x 0 0 1. y 0. 0. 1.  z 0. 0. 1. xy 9001 10000 1.

run             500
Step          Temp          KinEng         PotEng         TotEng        Enthalpy        Volume           Lx           Press           Pxx            Pyy            Pzz            Pyz
0   302.46888      312.73828     -49016.146     -48703.407     -48634.358      81809.965      43.409448      1352.2766      890.28315      269.80813      2896.7385      1250.6582
Loop time of 1.94292 on 8 procs for 500 steps with 8000 atoms

write_restart   restart_300Kxy10000bar.rmp
System init for write_restart ...

unfix           ramp
unfix           rmp_out

#
# settle at P2
#

fix relax       all npt temp 300 300 0.1 x 0 0 1  y 0. 0. 1  z 0. 0. 1 xy 10000 10000 1

run             2000
Step          Temp          KinEng         PotEng         TotEng        Enthalpy        Volume           Lx           Press           Pxx            Pyy            Pzz            Pyz
500   297.52224      307.62369     -49014.978     -48707.354     -48662.201      81814.853      43.409628      884.2208       779.38654      2800.5748     -927.29893     -847.78903
Averages over the last 11 of 21 rows, steps 1500 to 2500:
Temp KinEng PotEng TotEng Enthalpy Volume Lx Press Pxx Pyy Pzz Pyz
300.148 310.339 -49019.2 -48708.8 -48723.1 81823.2 43.4158 -279.127 -474.382 -125.761 -237.239 -627.347
Loop time of 7.76731 on 8 procs for 2000 steps with 8000 atoms

write_restart   restart_300Kxy10000bar.rlx
System init for write_restart ...

unfix           relax
unfix           rlx_out

#
# Run at P2 for equilibrium data
#

reset_timestep  0

fix equi        all npt temp 300 300 0.1 x 0 0 1 y 0. 0. 1  z 0. 0. 1 xy 10000 10000 1

run             5000
Step          Temp          KinEng         PotEng         TotEng        Enthalpy        Volume           Lx           Press           Pxx            Pyy            Pzz            Pyz
0   299.0597       309.21335     -49020.816     -48711.603     -48871.52       81890.32       43.438429     -3128.754      -5027.0953     -624.64193     -3734.5248     -1066.8215
Averages over the last 26 of 51 rows, steps 2500 to 5000:
Temp KinEng PotEng TotEng Enthalpy Volume Lx Press Pxx Pyy Pzz Pyz
299.642 309.815 -49018.7 -48708.9 -48711.8 81817 43.413 -57.3893 -47.8577 -79.6226 -44.6876 -217.239
Loop time of 20.4196 on 8 procs for 5000 steps with 8000 atoms

write_restart   restart_300Kxy10000bar.eql
System init for write_restart ...

unfix           equi
unfix           eq_out

next i

jump SELF shear_loop

print "Job Complete"
Job Complete
