LAMMPS (29 Aug 2024 - Update 1)
units            metal
boundary         p p p
atom_style       atomic
dimension 3

region box block 0 25 0 25 0 25
create_box 1 box
Created orthogonal box = (0 0 0) to (25 25 25)

lattice fcc 3.48
Lattice spacing in x,y,z = 3.48 3.48 3.48
create_atoms 1 box
Created 1688 atoms

mass 1 58.6934

pair_style eam
pair_coeff * * Ni_u3.eam
neighbor 1.5 bin
neigh_modify every 1 delay 1

timestep 0.005

thermo 25
thermo_style custom step temp press etotal vol

variable step equal step
variable temp equal temp
variable press equal press
variable etotal equal etotal
variable vol equal vol

dump 100 all atom 100 ni_rdf.dump

fix 0 all nvt temp 1 5000 0.01

compute myRDF all rdf 200

fix 1 all ave/time 100 10 1000 c_myRDF[*] file ni.rdf mode vector

run 10000
Step          Temp          Press          TotEng         Volume
0   0              2567803.6      34631.486      15625
Averages over the last 201 of 401 rows, steps 5000 to 10000:
Temp Press TotEng Volume
3751.41 726241 -5424.25 15625
Loop time of 28.1535 on 1 procs for 10000 steps with 1688 atoms
