LAMMPS (23 Jun 2022)

units metal
dimension 3
boundary p p p

#
# read restart file from previous run

read_restart	restart_at300K.npt2 remap
Reading restart file ...
  restart file = 23 Jun 2022, LAMMPS = 23 Jun 2022
  restoring atom style atomic from restart
  triclinic box = (0.10231192 0.10231192 0.10231192) to (43.493688 43.493688 43.493688) with tilt (0 0 0)
  pair style tersoff stores no restart info
  8000 atoms
  read_restart CPU = 0.400 seconds

#
# Read Potentials
#

pair_style	tersoff
pair_coeff      * * ./SiC.tersoff C Si
Reading tersoff potential file ./SiC.tersoff with DATE: 2011-04-26

mass 1   12.0107
mass 2   28.0855

#
# T0 is temperature at which we got the restart file from
# P0 is pressure which we got from the restart file
#
variable T0		equal 300
variable T1		equal 300
variable T2		equal 300
variable P0		equal 1
variable P1		equal 1
variable P2		equal 2500

variable step_ramp	equal 500
variable step_relax	equal 1500
variable step_equi      equal 8000
variable step_cont	equal 1000
variable step_begp	equal 1000
variable thermo_step	equal 100

variable vstep  equal           "step"
variable vpe    equal           "pe"
variable vtemp  equal           "temp"
variable venth  equal        "enthalpy"
variable vvol   equal           "vol"
variable vlx	equal		"lx"
variable vly	equal		"ly"
variable vlz	equal		"lz"
variable vpress equal           "press"
variable vte	equal		"etotal"
variable vke    equal		"ke"

variable vpxx	equal		"pxx"
variable vpyy   equal           "pyy"
variable vpzz   equal           "pzz"
variable vpxy   equal           "pxy"
variable vpxz   equal           "pxz"
variable vpyz   equal           "pyz"

# Initialized with RESTART file
# Potentials read already
#

timestep 	0.001 # fs

# perform continuation run first

thermo          100
thermo_style    custom step temp ke pe etotal enthalpy vol lx press pxx pyy pzz pxy pxz pyz atoms
fix cont        all npt temp 300 300 0.1 iso 1 1 1.

run             1000
Unused restart file global fix info:
  fix style: npt, fix ID: npt2
  update every 1 steps, delay 10 steps, check yes
Step          Temp          KinEng         PotEng         TotEng        Enthalpy        Volume           Lx           Press           Pxx            Pyy            Pzz            Pxy            Pxz            Pyz          Atoms
12000   285.2377       294.92206     -49034.13      -48739.208     -48643.775      81697.783      43.391376      1871.5383      870.17021      1856.3251      2888.1197     -110.86215     -1063.617       143.42462           8000
     12500   300.27902      310.47406     -49014.419     -48703.945     -48604.525      81786.374      43.407055      1947.6175      1008.9147      1899.8428      2934.0951     -218.92455      1322.1702     -74.245062     System init for write_restart ...
0
2500
Setting up Verlet run ...
  Unit style    : metal
  Current step  : 0
  Time step     : 0.001
Step          Temp          KinEng         PotEng         TotEng        Enthalpy        Volume           Lx           Press           Pxx            Pyy            Pzz            Pyz
0   299.40161      309.56686     -49013.986     -48704.419     -48729.198      81858.766      43.419858     -484.98673     -261.21647     -1186.6163     -7.1274808      1351.049
Loop time of 1.91789 on 8 procs for 500 steps with 8000 atoms

write_restart   restart_300K1bar.eql
System init for write_restart ...

unfix           cont
unfix           cnt_out

reset_timestep  0

#
# LOOP OVER pressures to determine corresponding volumes (average out the volume data in sampling
# run output file (range of pressures 0.25 GPa to 2.System init for write_restart ...
Setting up Verlet run ...
  Unit style    : metal
  Current step  : 500
  Time step     : 0.001
Step          Temp          KinEng         PotEng         TotEng        Enthalpy        Volume           Lx           Press           Pxx            Pyy            Pzz            Pyz
500   300.64053      310.84785     -49020.121     -48709.273     -48555.074      81743.753      43.399513      3022.2935      3338.6677      3083.3644      2644.8484      24.302945
Averages over the last 8 of 16 rows, steps 1300 to 2000:
Temp KinEng PotEng TotEng Enthalpy Volume Lx Press Pxx Pyy Pzz Pyz
299.124 309.28 -49022.6 -48713.3 -48594.2 81743.9 43.3995 2335.31 2104.43 2464.96 2436.54 112.122
Loop time of 5.78727 on 8 procs for 1500 steps with 8000 atoms

Ne
write_restart   restart_300K2500bar.rmp
System init for write_restart ...

unfix           ramp
unfix           rmp_out

#
# settle at P2
#

fix relax       all npt temp 300 300 0.1 iso 2500 2500 1.
Setting up Verlet run ...
  Unit style    : metal
  Current step  : 0
  Time step     : 0.001
Step          Temp          KinEng         PotEng         TotEng        Enthalpy        Volume           Lx           Press           Pxx            Pyy            Pzz            Pyz
0   298.38922      308.5201      -49025.335     -48716.815     -48575.491      81733.89       43.397768      2770.2785      1955.4178      2333.9028      4021.5149      3.9337004
Averages over the last 12 of 23 rows, steps 1100 to 2200:
Temp KinEng PotEng TotEng Enthalpy Volume Lx Press Pxx Pyy Pzz Pyz
299.106 309.261 -49021.2 -48711.9 -48573.3 81734.9 43.3979 2716.73 2293.19 3102.26 2754.75 252.619
write_restart   restart_300K2500bar.rlx
System init for write_restart ...

unfix           relax
unfix           rlx_out

#
# Run at P2 for equilibrium data
#

reset_timestep  0

fix equi        all npt temp 300 300 0.1 iso 2500 2500 1.

run             8000
Step          Temp          KinEng         PotEng         TotEng        Enthalpy        Volume           Lx           Press           Pxx            Pyy            Pzz            Pyz
0   298.38922      308.5201      -49025.335     -48716.815     -48575.491      81733.89       43.397768      2770.2785      1955.4178      2333.9028      4021.5149      3.9337004
Loop time of 30.7508 on 8 procs for 8000 steps with 8000 atoms

System init for write_restart ...
2500
5000
Setting up Verlet run ...
  Unit style    : metal
  Current step  : 0
  Time step     : 0.001
Step          Temp          KinEng         PotEng         TotEng        Enthalpy        Volume           Lx           Press           Pxx            Pyy            Pzz            Pyz
0   301.94241      312.19393     -49021.568     -48709.374     -48618.328      81767.232      43.403668      1783.9844      1973.1414      2275.8941      1102.9178      2063.0728
Loop time of 1.92353 on 8 procs for 500 steps with 8000 atoms

System init for write_restart ...
Setting up Verlet run ...
  Unit style    : metal
  Current step  : 500
  Time step     : 0.001
Step          Temp          KinEng         PotEng         TotEng        Enthalpy        Volume           Lx           Press           Pxx            Pyy            Pzz            Pyz
500   298.51092      308.64593     -49022.647     -48714.001     -48501.762      81692.688      43.390474      4162.4775      3362.056       4536.8815      4588.4951      1466.9331
Averages over the last 8 of 16 rows, steps 1300 to 2000:
Temp KinEng PotEng TotEng Enthalpy Volume Lx Press Pxx Pyy Pzz Pyz
301.33 311.561 -49021.7 -48710.1 -48455 81681.1 43.3884 5005.11 4841.14 5058.36 5115.82 786.514
Loop time of 5.80797 on 8 procs for 1500 steps with 8000 atoms

System init for write_restart ...
Setting up Verlet run ...
  Unit style    : metal
  Current step  : 0
  Time step     : 0.001
Step          Temp          KinEng         PotEng         TotEng        Enthalpy        Volume           Lx           Press           Pxx            Pyy            Pzz            Pyz
0   300.88993      311.10572     -49027.558     -48716.452     -48436.779      81647.474      43.382468      5488.0447      5065.1435      5163.5115      6235.4791      1815.2212
Averages over the last 41 of 81 rows, steps 4000 to 8000:
Temp KinEng PotEng TotEng Enthalpy Volume Lx Press Pxx Pyy Pzz Pyz
300.437 310.638 -49022.6 -48711.9 -48453.1 81671.4 43.3867 5077.14 4987.82 5196.19 5047.42 127.13
Loop time of 30.9411 on 8 procs for 8000 steps with 8000 atoms

System init for write_restart ...
5000
7500
Setting up Verlet run ...
  Unit style    : metal
  Current step  : 0
  Time step     : 0.001
Step          Temp          KinEng         PotEng         TotEng        Enthalpy        Volume           Lx           Press           Pxx            Pyy            Pzz            Pyz
0   304.47246      314.80988     -49021.557     -48706.747     -48560.327      81692.698      43.390476      2871.6176      3365.2179      2083.9658      3165.6691      89.452086
Loop time of 1.94549 on 8 procs for 500 steps with 8000 atoms

System init for write_restart ...
Setting up Verlet run ...
  Unit style    : metal
  Current step  : 500
  Time step     : 0.001
Step          Temp          KinEng         PotEng         TotEng        Enthalpy        Volume           Lx           Press           Pxx            Pyy            Pzz            Pyz
500   302.38267      312.64913     -49024.959     -48712.31      -48214.512      81569.175      43.368595      9777.7086      10137.429      10368.427      8827.2693      282.57347
Averages over the last 8 of 16 rows, steps 1300 to 2000:
Temp KinEng PotEng TotEng Enthalpy Volume Lx Press Pxx Pyy Pzz Pyz
300.538 310.741 -49026.3 -48715.6 -48314.3 81594.7 43.3731 7881.52 7378.64 8635.21 7630.69 100.585
Loop time of 5.85075 on 8 procs for 1500 steps with 8000 atoms

System init for write_restart ...
Setting up Verlet run ...
  Unit style    : metal
  Current step  : 0
  Time step     : 0.001
Step          Temp          KinEng         PotEng         TotEng        Enthalpy        Volume           Lx           Press           Pxx            Pyy            Pzz            Pyz
0   299.23609      309.39572     -49029.375     -48719.979     -48239.793      81558.906      43.366775      9432.9893      8327.6074      11069.976      8901.3842     -175.68101
Averages over the last 41 of 81 rows, steps 4000 to 8000:
Temp KinEng PotEng TotEng Enthalpy Volume Lx Press Pxx Pyy Pzz Pyz
299.147 309.303 -49025.3 -48716 -48334.4 81605.4 43.375 7492.1 7465.3 7576.08 7434.92 206.992
Loop time of 31.0885 on 8 procs for 8000 steps with 8000 atoms

System init for write_restart ...
7500
10000
Setting up Verlet run ...
  Unit style    : metal
  Current step  : 0
  Time step     : 0.001
Step          Temp          KinEng         PotEng         TotEng        Enthalpy        Volume           Lx           Press           Pxx            Pyy            Pzz            Pyz
0   301.59952      311.8394      -49018.936     -48707.096     -48279.202      81617.241      43.377112      8399.7313      8755.0151      8249.5911      8194.5877     -333.81049
Loop time of 1.97335 on 8 procs for 500 steps with 8000 atoms

System init for write_restart ...
Setting up Verlet run ...
  Unit style    : metal
  Current step  : 500
  Time step     : 0.001
Step          Temp          KinEng         PotEng         TotEng        Enthalpy        Volume           Lx           Press           Pxx            Pyy            Pzz            Pyz
500   300.99591      311.21529     -49026.574     -48715.358     -48284.138      81551.795      43.365515      8471.812       8376.5888      8377.3443      8661.5029      969.89406
Averages over the last 8 of 16 rows, steps 1300 to 2000:
Temp KinEng PotEng TotEng Enthalpy Volume Lx Press Pxx Pyy Pzz Pyz
298.769 308.913 -49027.9 -48719 -48209.8 81531.4 43.3619 10006.2 10289 10043.6 9686.16 159.403
Loop time of 5.85047 on 8 procs for 1500 steps with 8000 atoms

System init for write_restart ...
Setting up Verlet run ...
  Unit style    : metal
  Current step  : 0
  Time step     : 0.001
Step          Temp          KinEng         PotEng         TotEng        Enthalpy        Volume           Lx           Press           Pxx            Pyy            Pzz            Pyz
0   298.48388      308.61798     -49031.059     -48722.441     -48193.245      81500.65       43.356448      10403.161      10478.74       11363.601      9367.142       814.64619
Averages over the last 41 of 81 rows, steps 4000 to 8000:
Temp KinEng PotEng TotEng Enthalpy Volume Lx Press Pxx Pyy Pzz Pyz
299.721 309.897 -49027.8 -48717.9 -48211.2 81535.8 43.3627 9958.32 9998.58 9914.24 9962.13 43.6866
Loop time of 31.378 on 8 procs for 8000 steps with 8000 atoms

System init for write_restart ...
10000
12500
Setting up Verlet run ...
  Unit style    : metal
  Current step  : 0
  Time step     : 0.001
Step          Temp          KinEng         PotEng         TotEng        Enthalpy        Volume           Lx           Press           Pxx            Pyy            Pzz            Pyz
0   302.12589      312.38364     -49026.299     -48713.916     -48282.326      81586.41       43.37165       8475.4627      9154.7402      6459.5124      9812.1356      762.84925
Loop time of 1.97092 on 8 procs for 500 steps with 8000 atoms

System init for write_restart ...
Setting up Verlet run ...
  Unit style    : metal
  Current step  : 500
  Time step     : 0.001
Step          Temp          KinEng         PotEng         TotEng        Enthalpy        Volume           Lx           Press           Pxx            Pyy            Pzz            Pyz
500   301.05214      311.27343     -49030.29      -48719.016     -48240.504      81485.094      43.353689      9408.6021      8941.6457      10353.786      8930.3747     -1487.959
Averages over the last 8 of 16 rows, steps 1300 to 2000:
Temp KinEng PotEng TotEng Enthalpy Volume Lx Press Pxx Pyy Pzz Pyz
301.3 311.53 -49026.6 -48715.1 -48071.4 81471.6 43.3513 12658.9 12690.9 12631.2 12654.4 -369.07
Loop time of 5.87122 on 8 procs for 1500 steps with 8000 atoms

System init for write_restart ...
Setting up Verlet run ...
  Unit style    : metal
  Current step  : 0
  Time step     : 0.001
Step          Temp          KinEng         PotEng         TotEng        Enthalpy        Volume           Lx           Press           Pxx            Pyy            Pzz            Pyz
0   299.24518      309.40512     -49028.364     -48718.959     -48105.87       81467.717      43.350607      12057.253      12758.783      11229.453      12183.523      573.17186
Averages over the last 41 of 81 rows, steps 4000 to 8000:
Temp KinEng PotEng TotEng Enthalpy Volume Lx Press Pxx Pyy Pzz Pyz
299.411 309.577 -49029.2 -48719.7 -48062.1 81461.5 43.3495 12932.4 12898.9 12932.8 12965.5 -79.1832
Loop time of 31.5744 on 8 procs for 8000 steps with 8000 atoms

System init for write_restart ...
12500
15000
Setting up Verlet run ...
  Unit style    : metal
  Current step  : 0
  Time step     : 0.001
Step          Temp          KinEng         PotEng         TotEng        Enthalpy        Volume           Lx           Press           Pxx            Pyy            Pzz            Pyz
0   300.20444      310.39696     -49030.395     -48719.998     -48056.701      81450.851      43.347615      13047.357      12811.491      13263.405      13067.176     -543.2617
Loop time of 1.96999 on 8 procs for 500 steps with 8000 atoms

System init for write_restart ...
Setting up Verlet run ...
  Unit style    : metal
  Current step  : 500
  Time step     : 0.001
Step          Temp          KinEng         PotEng         TotEng        Enthalpy        Volume           Lx           Press           Pxx            Pyy            Pzz            Pyz
500   298.52478      308.66027     -49029.116     -48720.456     -48006.401      81423.028      43.342679      14050.602      14913.651      13261.02       13977.136     -1821.9046
Averages over the last 8 of 16 rows, steps 1300 to 2000:
Temp KinEng PotEng TotEng Enthalpy Volume Lx Press Pxx Pyy Pzz Pyz
300.649 310.857 -49029.5 -48718.7 -47938.4 81397 43.3381 15359.9 15292.2 15376.8 15410.6 -316.898
Loop time of 5.96408 on 8 procs for 1500 steps with 8000 atoms

System init for write_restart ...
Setting up Verlet run ...
  Unit style    : metal
  Current step  : 0
  Time step     : 0.001
Step          Temp          KinEng         PotEng         TotEng        Enthalpy        Volume           Lx           Press           Pxx            Pyy            Pzz            Pyz
0   300.28964      310.48504     -49027.474     -48716.989     -48007.003      81433.683      43.344569      13968.702      14482.57       13665.64       13757.896     -440.99211
Averages over the last 41 of 81 rows, steps 4000 to 8000:
Temp KinEng PotEng TotEng Enthalpy Volume Lx Press Pxx Pyy Pzz Pyz
299.224 309.383 -49030.7 -48721.3 -47960.5 81398.1 43.3383 14974.9 14868.4 15048.6 15007.8 -39.493
Loop time of 31.6354 on 8 procs for 8000 steps with 8000 atoms

System init for write_restart ...
15000
17500
Setting up Verlet run ...
  Unit style    : metal
  Current step  : 0
  Time step     : 0.001
Step          Temp          KinEng         PotEng         TotEng        Enthalpy        Volume           Lx           Press           Pxx            Pyy            Pzz            Pyz
0   293.65441      303.62454     -49026.392     -48722.767     -47939.544      81425.547      43.343126      15411.157      16025.769      15134.405      15073.298      2327.9342
Loop time of 1.98482 on 8 procs for 500 steps with 8000 atoms

System init for write_restart ...
Setting up Verlet run ...
  Unit style    : metal
  Current step  : 500
  Time step     : 0.001
Step          Temp          KinEng         PotEng         TotEng        Enthalpy        Volume           Lx           Press           Pxx            Pyy            Pzz            Pyz
500   300.36039      310.55819     -49032.694     -48722.136     -47968.551      81412.179      43.340754      14830.397      15331.081      14893.645      14266.464      1267.6699
Averages over the last 8 of 16 rows, steps 1300 to 2000:
Temp KinEng PotEng TotEng Enthalpy Volume Lx Press Pxx Pyy Pzz Pyz
299.33 309.493 -49030.5 -48721 -47832.1 81338.6 43.3277 17511.1 17594.2 17383.4 17555.8 564.298
Loop time of 5.98501 on 8 procs for 1500 steps with 8000 atoms

System init for write_restart ...
Setting up Verlet run ...
  Unit style    : metal
  Current step  : 0
  Time step     : 0.001
Step          Temp          KinEng         PotEng         TotEng        Enthalpy        Volume           Lx           Press           Pxx            Pyy            Pzz            Pyz
0   297.79039      307.90094     -49029.871     -48721.97      -47866.522      81351.099      43.329912      16847.695      16464.097      17078.899      17000.088      681.0969
Averages over the last 41 of 81 rows, steps 4000 to 8000:
Temp KinEng PotEng TotEng Enthalpy Volume Lx Press Pxx Pyy Pzz Pyz
300.727 310.937 -49031.3 -48720.4 -47813.3 81340.8 43.3281 17866.6 18038.1 17735.4 17826.3 13.8621
Loop time of 31.7361 on 8 procs for 8000 steps with 8000 atoms

System init for write_restart ...
17500
20000
Setting up Verlet run ...
  Unit style    : metal
  Current step  : 0
  Time step     : 0.001
Step          Temp          KinEng         PotEng         TotEng        Enthalpy        Volume           Lx           Press           Pxx            Pyy            Pzz            Pyz
0   303.99569      314.31692     -49033.002     -48718.685     -47804.389      81347.945      43.329352      18007.375      18029.751      17885.913      18106.46       371.57501
Loop time of 1.98818 on 8 procs for 500 steps with 8000 atoms

System init for write_restart ...
Setting up Verlet run ...
  Unit style    : metal
  Current step  : 500
  Time step     : 0.001
Step          Temp          KinEng         PotEng         TotEng        Enthalpy        Volume           Lx           Press           Pxx            Pyy            Pzz            Pyz
500   300.98458      311.20358     -49033.92      -48722.716     -47704.861      81234.14       43.309137      20075.094      19603.629      19897.274      20724.38      -875.82466
Averages over the last 8 of 16 rows, steps 1300 to 2000:
Temp KinEng PotEng TotEng Enthalpy Volume Lx Press Pxx Pyy Pzz Pyz
301.766 312.011 -49032 -48720 -47681.3 81281.3 43.3175 20475.6 20235.3 20714.3 20477.2 640.023
Loop time of 6.00166 on 8 procs for 1500 steps with 8000 atoms

System init for write_restart ...
Setting up Verlet run ...
  Unit style    : metal
  Current step  : 0
  Time step     : 0.001
Step          Temp          KinEng         PotEng         TotEng        Enthalpy        Volume           Lx           Press           Pxx            Pyy            Pzz            Pyz
0   305.72501      316.10495     -49027.872     -48711.767     -47634.475      81291.083      43.319254      21232.498      21525.148      22469.685      19702.662      892.60867
Averages over the last 41 of 81 rows, steps 4000 to 8000:
Temp KinEng PotEng TotEng Enthalpy Volume Lx Press Pxx Pyy Pzz Pyz
299.007 309.159 -49033.8 -48724.7 -47723 81274 43.3162 19746.4 19590.9 19875.7 19772.6 -39.7775
Loop time of 31.9215 on 8 procs for 8000 steps with 8000 atoms

System init for write_restart ...
20000
22500
Setting up Verlet run ...
  Unit style    : metal
  Current step  : 0
  Time step     : 0.001
Step          Temp          KinEng         PotEng         TotEng        Enthalpy        Volume           Lx           Press           Pxx            Pyy            Pzz            Pyz
0   299.25173      309.4119      -49033.772     -48724.36      -47754.888      81271.398      43.315757      19112.08       18201.669      19795.918      19338.654      80.397425
Loop time of 2.00899 on 8 procs for 500 steps with 8000 atoms

System init for write_restart ...
Setting up Verlet run ...
  Unit style    : metal
  Current step  : 500
  Time step     : 0.001
Step          Temp          KinEng         PotEng         TotEng        Enthalpy        Volume           Lx           Press           Pxx            Pyy            Pzz            Pyz
500   302.19535      312.45546     -49037.285     -48724.83      -47510.015      81196.538      43.302454      23970.835      24912.732      22778.261      24221.511     -332.7255
Averages over the last 8 of 16 rows, steps 1300 to 2000:
Temp KinEng PotEng TotEng Enthalpy Volume Lx Press Pxx Pyy Pzz Pyz
302.642 312.917 -49032.8 -48719.9 -47584.8 81225.9 43.3077 22391.6 22377.8 22736.2 22060.9 997.078
Loop time of 6.01684 on 8 procs for 1500 steps with 8000 atoms

System init for write_restart ...
Setting up Verlet run ...
  Unit style    : metal
  Current step  : 0
  Time step     : 0.001
Step          Temp          KinEng         PotEng         TotEng        Enthalpy        Volume           Lx           Press           Pxx            Pyy            Pzz            Pyz
0   296.84398      306.9224      -49034.85      -48727.927     -47520.662      81203.73       43.303732      23819.743      23920.397      24713.624      22825.208      481.56157
Averages over the last 41 of 81 rows, steps 4000 to 8000:
Temp KinEng PotEng TotEng Enthalpy Volume Lx Press Pxx Pyy Pzz Pyz
300.102 310.291 -49034.3 -48724 -47579.4 81214 43.3056 22581 22772 22575.3 22395.6 4.86694
Loop time of 31.9712 on 8 procs for 8000 steps with 8000 atoms

System init for write_restart ...
22500
25000
Setting up Verlet run ...
  Unit style    : metal
  Current step  : 0
  Time step     : 0.001
Step          Temp          KinEng         PotEng         TotEng        Enthalpy        Volume           Lx           Press           Pxx            Pyy            Pzz            Pyz
0   293.79371      303.76856     -49035.031     -48731.262     -47661.479      81214.557      43.305657      21104.358      21341.399      20643.287      21328.388      1251.1888
Loop time of 2.02181 on 8 procs for 500 steps with 8000 atoms

System init for write_restart ...
Setting up Verlet run ...
  Unit style    : metal
  Current step  : 500
  Time step     : 0.001
Step          Temp          KinEng         PotEng         TotEng        Enthalpy        Volume           Lx           Press           Pxx            Pyy            Pzz            Pyz
500   295.27241      305.29747     -49032.944     -48727.647     -47428.732      81148.089      43.293839      25645.589      24444.258      25658.291      26834.219      2281.5175
Averages over the last 8 of 16 rows, steps 1300 to 2000:
Temp KinEng PotEng TotEng Enthalpy Volume Lx Press Pxx Pyy Pzz Pyz
301.502 311.738 -49036.1 -48724.3 -47463.3 81150.4 43.2942 24897 24443.7 24740.7 25506.7 193.434
Loop time of 6.02972 on 8 procs for 1500 steps with 8000 atoms

System init for write_restart ...
Setting up Verlet run ...
  Unit style    : metal
  Current step  : 0
  Time step     : 0.001
Step          Temp          KinEng         PotEng         TotEng        Enthalpy        Volume           Lx           Press           Pxx            Pyy            Pzz            Pyz
0   299.8125       309.9917      -49031.636     -48721.644     -47579.653      81198.769      43.30285       22533.244      21799.212      22818.757      22981.764     -264.01764
Averages over the last 41 of 81 rows, steps 4000 to 8000:
Temp KinEng PotEng TotEng Enthalpy Volume Lx Press Pxx Pyy Pzz Pyz
299.042 309.195 -49036.2 -48727 -47452.5 81149 43.294 25163 25317.6 24978 25193.5 -121.157
Loop time of 32.2731 on 8 procs for 8000 steps with 8000 atoms

System init for write_restart ...
Job Complete
Loop time of 31.9712 on 8 procs for 8000 steps with 8000 atoms

write_restart   restart_300K22500bar.eql
System init for write_restart ...

unfix           equi
unfix           eq_out

next i

jump SELF pres_loop

variable P1 equal	"v_i*2500 - 2500"
variable P2 equal 	"v_i*2500"

print 22500
22500
print 25000
25000
#

reset_timestep 0

#
# Run at T0 and P2
#

thermo          100
thermo_style    custom step temp ke pe etotal enthalpy vol lx press pxx pyy pzz pyz
fix ramp        all npt temp 300 300 0.1 iso 22500 25000 1.

run             500
Step          Temp          KinEng         PotEng         TotEng        Enthalpy        Volume           Lx           Press           Pxx            Pyy            Pzz            Pyz
0   293.79371      303.76856     -49035.031     -48731.262     -47661.479      81214.557      43.305657      21104.358      21341.399      20643.287      21328.388      1251.1888
Loop time of 2.02181 on 8 procs for 500 steps with 8000 atoms

write_restart   restart_300K25000bar.rmp
System init for write_restart ...

unfix           ramp
unfix           rmp_out

#
# settle at P2
#

fix relax       all npt temp 300 300 0.1 iso 25000 25000 1.

run             1500
Step          Temp          KinEng         PotEng         TotEng        Enthalpy        Volume           Lx           Press           Pxx            Pyy            Pzz            Pyz
500   295.27241      305.29747     -49032.944     -48727.647     -47428.732      81148.089      43.293839      25645.589      24444.258      25658.291      26834.219      2281.5175
Averages over the last 8 of 16 rows, steps 1300 to 2000:
Temp KinEng PotEng TotEng Enthalpy Volume Lx Press Pxx Pyy Pzz Pyz
301.502 311.738 -49036.1 -48724.3 -47463.3 81150.4 43.2942 24897 24443.7 24740.7 25506.7 193.434
Loop time of 6.02972 on 8 procs for 1500 steps with 8000 atoms

write_restart   restart_300K25000bar.rlx
System init for write_restart ...

unfix           relax
unfix           rlx_out

#
# Run at P2 for equilibrium data
#

reset_timestep  0

fix equi        all npt temp 300 300 0.1 iso 25000 25000 1.

run             8000
Step          Temp          KinEng         PotEng         TotEng        Enthalpy        Volume           Lx           Press           Pxx            Pyy            Pzz            Pyz
0   299.8125       309.9917      -49031.636     -48721.644     -47579.653      81198.769      43.30285       22533.244      21799.212      22818.757      22981.764     -264.01764
Averages over the last 41 of 81 rows, steps 4000 to 8000:
Temp KinEng PotEng TotEng Enthalpy Volume Lx Press Pxx Pyy Pzz Pyz
299.042 309.195 -49036.2 -48727 -47452.5 81149 43.294 25163 25317.6 24978 25193.5 -121.157
Loop time of 32.2731 on 8 procs for 8000 steps with 8000 atoms

write_restart   restart_300K25000bar.eql
System init for write_restart ...

unfix           equi
unfix           eq_out

next i

jump SELF pres_loop

print "Job Complete"
Job Complete
