LAMMPS (29 Aug 2024 - Update 1)
units metal
atom_style atomic
boundary p p p

lattice fcc 4.07 origin 0 0 0 orient z 1 1 0 orient x 0 0 -1 orient y -1 1 0
Lattice spacing in x,y,z = 4.07 5.7558492 5.7558492
region box block 0 10 0 5 0 40 units lattice side in
create_box 1 box
Created orthogonal box = (0 0 0) to (40.7 28.779246 230.23397)
create_atoms 1 box
Created 16000 atoms

region 1 prism 5.1 10.0 0 5 -1 1000 10 0 0
region 2 prism -1.0 4.9 0 5 -1 1000 -10 0 0
region 3 prism 14.9 20.0 0 5 -1 1000 -10 0 0
region 4 prism -20.0 -4.5 0 5 -1 1000 10 0 0

group del1 region 1
1600 atoms in group del1
group del2 region 2
2000 atoms in group del2
group del3 region 3
2000 atoms in group del3
group del4 region 4
2400 atoms in group del4

delete_atoms group del1
Deleted 1600 atoms, new total = 14400
delete_atoms group del2
Deleted 2000 atoms, new total = 12400
delete_atoms group del3
Deleted 2000 atoms, new total = 10400
delete_atoms group del4
Deleted 2400 atoms, new total = 8000

pair_style eam
pair_coeff * * au_u3.eam
Reading eam potential file au_u3.eam with DATE: 2007-06-11
neighbor 1.5 bin
neigh_modify every 1 delay 1

velocity all create 300 87654321 dist gaussian
velocity all zero linear
velocity all zero angular

thermo 200
thermo_style custom step atoms temp pe lx ly lz pzz press
thermo_modify lost warn norm yes flush yes

timestep 0.005

dump 1 all custom 100 pos.dump id type x y z

fix 1 all npt temp 300.0 300.0 10.0 aniso 0.0 0.0 10.0 drag 1.0
run 20000
Step        Atoms         Temp          PotEng           Lx             Ly             Lz            Pzz           Press
0        8000   299.95551     -3.7847507      40.7           28.779246      230.23397     -18244.824     -14819.138
Averages over the last 51 of 101 rows, steps 10000 to 20000:
Atoms Temp PotEng Lx Ly Lz Pzz Press
8000 366.107 -3.80928 29.2956 24.576 227.304 14.9112 -68.9692
Loop time of 162.761 on 1 procs for 20000 steps with 8000 atoms

unfix 1
undump 1
reset_timestep 0

compute MyTemp all temp
compute MyPe all pe

fix ThermoAve all ave/time 1 100 200 c_MyTemp c_MyPe

thermo 200
thermo_style custom step atoms f_ThermoAve[1] f_ThermoAve[2] lz vol pzz
thermo_modify lost warn norm yes flush yes

fix 1 all nvt temp 300.0 300.0 10.0
fix 2 all deform 200 z erate 0.0001

dump 2 all xyz 50000 Au_*.xyz

run 500000
Step        Atoms    f_ThermoAve[1] f_ThermoAve[2]       Lz           Volume          Pzz
0        8000   0              0              225.17701      158282.42      699.9455
Averages over the last 793 of 1585 rows, steps 158400 to 316800:
Atoms f_ThermoAve[1] f_ThermoAve[2] Lz Volume Pzz
8000 300.402 -3.82141 251.928 177086 -437.76
